<?xml version="1.0" encoding="iso-8859-1"?>
<!--
<ReadMe>

This XML can be imported in Altium Designer 14 using WEBENCH Altium Connector Extension and simulated using WEBENCH Simulation Engine.
The WEBENCH Altium Connector provides an interface to the Texas Instruments WEBENCH Designer Tools as well as to open WEBENCH exported Designs directly from inside Altium Designer.
It also includes the advanced WEBENCH Simulation Engine which can be used for offline circuit simulations.
You will need a activation key from TI to be able to use the WEBENCH Simulation Engine.

Installation guide:
http://www.ti.com/lit/SNVU481
You can download the WEBENCH extension from Altium Designer 14 Extensions.

Connector Details:
http://www.ti.com/lsds/ti/analog/webench/altiumconnector.page

More about WEBENCH simulation export to Altium:
http://www.ti.com/lsds/ti/analog/webench/simexportaltium.page

User Manual:
http://www.ti.com/lit/szzu007

</ReadMe>
-->
<schematic>
  <circuit>
    <text id="T_123456" position="400,-148" fontname="Times New Roman" fontsize="27" bold="0" color="#294901">
      <![CDATA[TPS62142 Startup Simulation
(Exported from WEBENCH® Designer)]]>
    </text>
    <text id="T_123456" position="945,-148" fontname="Arial" fontsize="13" bold="1" italic="1" color="#278190" border="1">
      <![CDATA[Title :    TPS62142RGTR 4V-6V to 3.30V @ 1.4A
-------------------------------------------------------------------------
WEBENCH® Design ID                  :       20
Date of WEBENCH® Export           :       21-Jul-2019
Time of WEBENCH® Export          :       3:33:04 AM
WEBENCH® Export Tool Version :       E1.67-X2.27]]>
    </text>
    <component type="Cin" typeid="57" position="430,400" mirrored="0" nodematch="0" macrotype="2" orientation="0">
			<parameter idx="0" encrypted="0">
        <![CDATA[
***********************************
*     Created by WB Importer      *
***********************************
.SUBCKT MAIN_BLOCK_Cin_WB_CAP_POLARIZED 1 2
Ccap 1 3 1.0E-5
Resr 3 2 0.003
.ENDS]]>
      </parameter>
			<image>
				<label text="Cin" position="436,378" textroot=" " orientation="0" color=""/>  <hotzone points="-24,60,24,-60"/>
        <shape type="line" width="Hair" color="#0000ff" points="0,-60,0,-40"/>
        <shape type="line" width="Hair" color="#0000ff" points="0,60,0,40"/>
        <shape type="line" width="1" color="#0000ff" points="24,-6,-24,-6"/>
        <shape type="line" width="1" color="#0000ff" points="0,40,0,6"/>
        <shape type="line" width="1" color="#0000ff" points="0,-6,0,-40"/>
        <shape type="line" width="1" color="#0000ff" points="24,6,-24,6"/>
        <legend text="10 uF" position="8,18" orientation="0" fontname="Arial" fontsize="12" bold="0" italic="0" color="#229922"/>
        <legend text="3 mOhm" position="8,32" orientation="0" fontname="Arial" fontsize="12" bold="0" italic="0" color="#229922"/>
        <legend text="" position="8,48" orientation="0" fontname="Arial" fontsize="12" bold="0" italic="0" color="#229922"/>
        <pin position="0,-60" dir="0" length="0" text="1"/>
        <pin position="0,60" dir="0" length="0" text="2"/>
      </image>
		</component>
    <component type="Cout" typeid="57" position="1420,450" mirrored="0" nodematch="0" macrotype="2" orientation="0">
			<parameter idx="0" encrypted="0">
        <![CDATA[
***********************************
*     Created by WB Importer      *
***********************************
.SUBCKT MAIN_BLOCK_Cout_WB_CAP_CERAMIC 2 4
R1 2 3 0.001
C1 3 4 7.9E-6 IC=0.0
R3 5 4 5
R2 2 4 1.2658227848101264E8
R4 3 26 222222.22222222222
R6 3 7 222.22222222222223
C5 7 1 2.3700000000000002E-7 IC=0.0
R7 3 10 22.22222222222222
C6 10 1 2.3700000000000002E-7 IC=0.0
R8 3 13 2.2222222222222223
C7 13 1 2.3700000000000002E-7 IC=0.0
C2 26 1 2.3700000000000002E-7 IC=0.0
R9 3 28 22222.222222222223
C3 28 1 2.3700000000000002E-7 IC=0.0
R10 3 29 2222.222222222222
C4 29 1 2.3700000000000002E-7 IC=0.0
L8 1 5 15p
R24 1 5 0.003
L12 5 4 1n
.ENDS]]>
      </parameter>
			<image>
				<label text="Cout" position="1426,428" textroot=" " orientation="0" color=""/>  <hotzone points="-24,60,24,-60"/>
        <shape type="line" width="Hair" color="#0000ff" points="0,-60,0,-40"/>
        <shape type="line" width="Hair" color="#0000ff" points="0,60,0,40"/>
        <shape type="line" width="1" color="#0000ff" points="24,-6,-24,-6"/>
        <shape type="line" width="1" color="#0000ff" points="0,40,0,6"/>
        <shape type="line" width="1" color="#0000ff" points="0,-6,0,-40"/>
        <shape type="line" width="1" color="#0000ff" points="24,6,-24,6"/>
        <legend text="22 uF" position="8,18" orientation="0" fontname="Arial" fontsize="12" bold="0" italic="0" color="#229922"/>
        <legend text="1 mOhm" position="8,32" orientation="0" fontname="Arial" fontsize="12" bold="0" italic="0" color="#229922"/>
        <legend text="" position="8,48" orientation="0" fontname="Arial" fontsize="12" bold="0" italic="0" color="#229922"/>
        <pin position="0,-60" dir="0" length="0" text="2"/>
        <pin position="0,60" dir="0" length="0" text="4"/>
      </image>
		</component>
    <component type="Css" typeid="57" position="730,520" mirrored="0" nodematch="0" macrotype="2" orientation="0">
			<parameter idx="0" encrypted="0">
        <![CDATA[
***********************************
*     Created by WB Importer      *
***********************************
.subckt MAIN_BLOCK_WB_TPS62131_MAIN_BLOCK_Css 1 2
Css 1 2 3.9E-10

.ends]]>
      </parameter>
			<image>
				<label text="Css" position="736,498" textroot=" " orientation="0" color=""/>  <hotzone points="-24,60,24,-60"/>
        <shape type="line" width="Hair" color="#0000ff" points="0,-60,0,-40"/>
        <shape type="line" width="Hair" color="#0000ff" points="0,60,0,40"/>
        <shape type="line" width="1" color="#0000ff" points="24,-6,-24,-6"/>
        <shape type="line" width="1" color="#0000ff" points="0,40,0,6"/>
        <shape type="line" width="1" color="#0000ff" points="0,-6,0,-40"/>
        <shape type="line" width="1" color="#0000ff" points="24,6,-24,6"/>
        <legend text="0.39 nF" position="8,18" orientation="0" fontname="Arial" fontsize="12" bold="0" italic="0" color="#229922"/>
        <legend text="1 mOhm" position="8,32" orientation="0" fontname="Arial" fontsize="12" bold="0" italic="0" color="#229922"/>
        <legend text="" position="8,48" orientation="0" fontname="Arial" fontsize="12" bold="0" italic="0" color="#229922"/>
        <pin position="0,-60" dir="0" length="0" text="1"/>
        <pin position="0,60" dir="0" length="0" text="2"/>
      </image>
		</component>
    <component type="Ground" typeid="2" position="970,650" mirrored="0" nodematch="0" macrotype="2" orientation="0">
			<parameter idx="0" encrypted="0">
			</parameter>
			<image>
				<label text="GND1" position="970,650" textroot="GND1" orientation="0" color="#228822"/>
			</image>
		</component>
    <component type="ICout" typeid="34" position="1420,360" mirrored="0" nodematch="0" macrotype="2" orientation="0">
			<parameter idx="0" encrypted="0">
			</parameter>
			<image>
				<label text="ICout" position="1420,360" textroot=" " orientation="0" color=""/>  <hotzone points="6,-30,-6,30"/>
        <shape type="line" width="Hair" color="#0000ff" points="0,-30,0,30"/>
        <shape type="line" width="1" color="#0000ff" points="4,-6,-4,-6"/>
        <shape type="line" width="1" color="#0000ff" points="-4,-6,0,4"/>
        <shape type="line" width="1" color="#0000ff" points="0,4,4,-6"/>
        <pin position="0,-30" dir="0" length="0" text="1"/>
        <pin position="0,30" dir="0" length="0" text="2"/>
      </image>  <parameter idx="0" encrypted="0">
        <![CDATA[***********************************
*     Created by WB Importer      *
***********************************
.SUBCKT ICout 1 2 
V_Iprobe 1 2 0.0
.ENDS
]]>
      </parameter>
      <parameter idx="1" name="VALUE" value="0"/>
    </component>
    <component type="IL" typeid="34" position="1170,190" mirrored="0" nodematch="0" macrotype="2" orientation="0">
			<parameter idx="0" encrypted="0">
			</parameter>
			<image>
				<label text="IL" position="1170,190" textroot=" " orientation="0" color=""/>  <hotzone points="-30,-6,30,6"/>
        <shape type="line" width="Hair" color="#0000ff" points="-30,0,30,0"/>
        <shape type="line" width="1" color="#0000ff" points="-6,-4,-6,4"/>
        <shape type="line" width="1" color="#0000ff" points="-6,4,4,0"/>
        <shape type="line" width="1" color="#0000ff" points="4,0,-6,-4"/>
        <pin position="-30,0" dir="0" length="0" text="1"/>
        <pin position="30,0" dir="0" length="0" text="2"/>
      </image>  <parameter idx="0" encrypted="0">
        <![CDATA[***********************************
*     Created by WB Importer      *
***********************************
.SUBCKT IL 1 2 
V_Iprobe 1 2 0.0
.ENDS
]]>
      </parameter>
      <parameter idx="1" name="VALUE" value="0"/>
    </component>
    <component type="IOut" typeid="34" position="1560,190" mirrored="0" nodematch="0" macrotype="2" orientation="0">
			<parameter idx="0" encrypted="0">
			</parameter>
			<image>
				<label text="IOut" position="1560,190" textroot=" " orientation="0" color=""/>  <hotzone points="-30,-6,30,6"/>
        <shape type="line" width="Hair" color="#0000ff" points="-30,0,30,0"/>
        <shape type="line" width="1" color="#0000ff" points="-6,-4,-6,4"/>
        <shape type="line" width="1" color="#0000ff" points="-6,4,4,0"/>
        <shape type="line" width="1" color="#0000ff" points="4,0,-6,-4"/>
        <pin position="-30,0" dir="0" length="0" text="1"/>
        <pin position="30,0" dir="0" length="0" text="2"/>
      </image>  <parameter idx="0" encrypted="0">
        <![CDATA[***********************************
*     Created by WB Importer      *
***********************************
.SUBCKT IOut 1 2 
V_Iprobe 1 2 0.0
.ENDS
]]>
      </parameter>
      <parameter idx="1" name="VALUE" value="0"/>
    </component>
    <component type="L1" typeid="57" position="1320,190" mirrored="0" nodematch="0" macrotype="2" orientation="0">
			<parameter idx="0" encrypted="0">
        <![CDATA[
***********************************
*     Created by WB Importer      *
***********************************
.SUBCKT MAIN_BLOCK_L1_WB_INDUCTOR 1 2
L1 2 3 2.2E-6
RDCR 3 1 0.048
.ENDS]]>
      </parameter>
			<image>
				<label text="L1" position="1286,160" textroot=" " orientation="0" color=""/>  <hotzone points="-60,-10,60,10"/>
        <shape type="line" width="Hair" color="#0000ff" points="40,0,60,0"/>
        <shape type="line" width="Hair" color="#0000ff" points="-40,0,-60,0"/>
        <legend text="2.2 uH" position="-30,8" orientation="0" fontname="Arial" fontsize="12" bold="0" italic="0" color="#229922"/>
        <legend text="48 mOhm" position="-30,22" orientation="0" fontname="Arial" fontsize="12" bold="0" italic="0" color="#229922"/>
        <shape type="arc" color="#0000ff" width="2" points="-40,-10,-20,10,90,90"/>
        <shape type="arc" color="#0000ff" width="2" points="-40,-10,-20,10,0,90"/>
        <shape type="arc" color="#0000ff" width="2" points="-20,-10,0,10,90,90"/>
        <shape type="arc" color="#0000ff" width="2" points="-20,-10,0,10,0,90"/>
        <shape type="arc" color="#0000ff" width="2" points="0,-10,20,10,90,90"/>
        <shape type="arc" color="#0000ff" width="2" points="0,-10,20,10,0,90"/>
        <shape type="arc" color="#0000ff" width="2" points="20,-10,40,10,90,90"/>
        <shape type="arc" color="#0000ff" width="2" points="20,-10,40,10,0,90"/>
        <pin position="-60,0" dir="0" length="0" text="1"/>
        <pin position="60,0" dir="0" length="0" text="2"/>
      </image>
		</component>
    <component type="Rpg" typeid="57" position="1200,110" mirrored="0" nodematch="0" macrotype="2" orientation="0">
			<parameter idx="0" encrypted="0">
        <![CDATA[
***********************************
*     Created by WB Importer      *
***********************************
.subckt MAIN_BLOCK_WB_TPS62131_MAIN_BLOCK_Rpg 1 2
Rpg 1 2 100000.0

.ends]]>
      </parameter>
			<image>
				<label text="Rpg" position="1170,86" textroot=" " orientation="0" color=""/>  <hotzone points="-60,-10,60,10"/>
        <shape type="line" width="1" color="#0000ff" points="-60,0,-40,0"/>
        <shape type="line" width="1" color="#0000ff" points="-40,0,-30,-10"/>
        <shape type="line" width="1" color="#0000ff" points="-30,-10,-10,10"/>
        <shape type="line" width="1" color="#0000ff" points="-10,10,10,-10"/>
        <shape type="line" width="1" color="#0000ff" points="10,-10,30,10"/>
        <shape type="line" width="1" color="#0000ff" points="30,10,40,0"/>
        <shape type="line" width="1" color="#0000ff" points="40,0,60,0"/>
        <legend text="0.1 MOhm" position="-36,20" orientation="0" fontname="Arial" fontsize="12" bold="0" italic="0" color="#229922"/>
        <pin position="60,0" dir="0" length="0" text="1"/>
        <pin position="-60,0" dir="0" length="0" text="2"/>
      </image>
		</component>
    <component type="TPS62142RGTR" typeid="57" position="980,310" mirrored="0" nodematch="0" macrotype="2" orientation="0">
			<parameter idx="0" encrypted="0">
        <![CDATA[*****************************************************************************
** MAIN_BLOCK.U1.WB_TPS62131 Spice Model
*****************************************************************************
** (C) Copyright 2019 Texas Instruments Incorporated. All rights reserved.
** This model is designed as an aid for customers of Texas Instruments.
** TI and its licensors and suppliers make no warranties, either expressed
** or implied, with respect to this model, including the warranties of
** merchantability or fitness for a particular purpose. The model is
** provided solely on an "as is" basis. The entire risk as to its quality
** and performance is with the customer
*****************************************************************************
*****************************************************************************

.SUBCKT MAIN_BLOCK_U1_WB_TPS62131_ENCR SW PG FB AGND FSW DEF SS_TR AVIN PVIN EN VOS PGND EP PARAMS: SS=0
.include pspice://../MAIN_BLOCK.U1.WB_TPS62131.enl
XCALL SW PG FB AGND FSW DEF SS_TR AVIN PVIN EN VOS PGND EP MAIN_BLOCK_U1_WB_TPS62131 PARAMS: SS=0 
.ENDS
]]>
      </parameter>
			<image>
				<shape type="rectangle" points="-120,-220,120,220" color="4278190208" width="2" fill="4294967040"/>
        <label text="U1" position="840,50" textroot="U1 " orientation="0" color=""/>  <hotzone points="-140,-240,140,240"/>
        <shape type="line" width="Hair" color="#0000ff" points="140,-120,120,-120"/>
        <shape type="line" width="Hair" color="#0000ff" points="140,-200,120,-200"/>
        <shape type="line" width="Hair" color="#0000ff" points="140,180,120,180"/>
        <shape type="line" width="Hair" color="#0000ff" points="40,240,40,220"/>
        <shape type="line" width="Hair" color="#0000ff" points="140,40,120,40"/>
        <shape type="line" width="Hair" color="#0000ff" points="140,140,120,140"/>
        <shape type="line" width="Hair" color="#0000ff" points="-140,20,-120,20"/>
        <shape type="line" width="Hair" color="#0000ff" points="-140,-60,-120,-60"/>
        <shape type="line" width="Hair" color="#0000ff" points="-140,-120,-120,-120"/>
        <shape type="line" width="Hair" color="#0000ff" points="-140,-200,-120,-200"/>
        <shape type="line" width="Hair" color="#0000ff" points="140,-20,120,-20"/>
        <shape type="line" width="Hair" color="#0000ff" points="-40,240,-40,220"/>
        <shape type="line" width="Hair" color="#0000ff" points="-140,140,-120,140"/>
        
        <shape type="line" width="1" color="#ff0000" points="-1,-49,-2,-44"/>
        <shape type="line" width="1" color="#ff0000" points="-1,-51,-1,-51"/>
        <shape type="polygon" width="1" color="#ff0000" fill="#ff0000" points="-7,-53,-7,-47,-11,-47,-11,-46,-10,-45,-9,-43,-8,-42,-7,-42,-6,-43,-5,-42,-4,-40,-1,-38,0,-38,0,-40,1,-42,3,-43,4,-44,4,-47,3,-48,3,-50,1,-50,0,-48,2,-48,1,-46,0,-46,-1,-44,0,-44,0,-43,-1,-42,-3,-42,-4,-43,-3,-46,-5,-46,-4,-48,-3,-48,-3,-48,-2,-50,-4,-50,-4,-52,-4,-53"/>
        <legend text="TPS62142" position="-32,-18" orientation="0" fontname="Arial" fontsize="16" bold="0" italic="0" color="4278190208"/>
        <pin position="140,-120" dir="0" length="0" text="SW">
          <legend text="SW" position="100,-130" orientation="0" fontname="Arial" fontsize="10" bold="0" italic="0" color="4286578688"/>
        </pin>
        <pin position="140,-200" dir="0" length="0" text="PG">
          <legend text="PG" position="100,-210" orientation="0" fontname="Arial" fontsize="10" bold="0" italic="0" color="4286578688"/>
        </pin>
        <pin position="140,180" dir="0" length="0" text="FB">
          <legend text="FB" position="100,170" orientation="0" fontname="Arial" fontsize="10" bold="0" italic="0" color="4286578688"/>
        </pin>
        <pin position="40,240" dir="0" length="0" text="AGND">
          <legend text="AGND" position="20,200" orientation="0" fontname="Arial" fontsize="10" bold="0" italic="0" color="4286578688"/>
        </pin>
        <pin position="140,40" dir="0" length="0" text="FSW">
          <legend text="FSW" position="90,30" orientation="0" fontname="Arial" fontsize="10" bold="0" italic="0" color="4286578688"/>
        </pin>
        <pin position="140,140" dir="0" length="0" text="DEF">
          <legend text="DEF" position="90,130" orientation="0" fontname="Arial" fontsize="10" bold="0" italic="0" color="4286578688"/>
        </pin>
        <pin position="-140,20" dir="0" length="0" text="SS_TR">
          <legend text="SS_TR" position="-118,10" orientation="0" fontname="Arial" fontsize="10" bold="0" italic="0" color="4286578688"/>
        </pin>
        <pin position="-140,-60" dir="0" length="0" text="AVIN">
          <legend text="AVIN" position="-118,-70" orientation="0" fontname="Arial" fontsize="10" bold="0" italic="0" color="4286578688"/>
        </pin>
        <pin position="-140,-120" dir="0" length="0" text="PVIN">
          <legend text="PVIN" position="-118,-130" orientation="0" fontname="Arial" fontsize="10" bold="0" italic="0" color="4286578688"/>
        </pin>
        <pin position="-140,-200" dir="0" length="0" text="EN">
          <legend text="EN" position="-118,-210" orientation="0" fontname="Arial" fontsize="10" bold="0" italic="0" color="4286578688"/>
        </pin>
        <pin position="140,-20" dir="0" length="0" text="VOS">
          <legend text="VOS" position="90,-30" orientation="0" fontname="Arial" fontsize="10" bold="0" italic="0" color="4286578688"/>
        </pin>
        <pin position="-40,240" dir="0" length="0" text="PGND">
          <legend text="PGND" position="-60,200" orientation="0" fontname="Arial" fontsize="10" bold="0" italic="0" color="4286578688"/>
        </pin>
        <pin position="-140,140" dir="0" length="0" text="EP">
          <legend text="EP" position="-118,130" orientation="0" fontname="Arial" fontsize="10" bold="0" italic="0" color="4286578688"/>
        </pin>
      </image>
		</component>
    <component type="VIn" typeid="4" position="630,190" mirrored="0" nodematch="0" macrotype="2" orientation="0">
			<parameter idx="0" encrypted="0">
			</parameter>
			<image>
				<label text="VIn" position="630,160" textroot="VIn" orientation="0" color="#228822"/>
			</image>
		</component>
    <component type="VOut" typeid="4" position="1380,110" mirrored="0" nodematch="0" macrotype="2" orientation="0">
			<parameter idx="0" encrypted="0">
			</parameter>
			<image>
				<label text="VOut" position="1380,80" textroot="VOut" orientation="0" color="#228822"/>
			</image>
		</component>
    <component type="Vsw" typeid="4" position="1240,190" mirrored="0" nodematch="0" macrotype="2" orientation="0">
			<parameter idx="0" encrypted="0">
			</parameter>
			<image>
				<label text="Vsw" position="1240,160" textroot="Vsw" orientation="0" color="#228822"/>
			</image>
		</component>
    <component type="Vin_2" typeid="57" position="300,350" mirrored="0" nodematch="0" macrotype="2" orientation="0">
			<parameter idx="0" encrypted="0">
        <![CDATA[
***********************************
*     Created by WB Importer      *
***********************************
.SUBCKT INPUT_BLOCK_Vin_WB_STARTUP_VOLTAGE_SOURCE 1 2
Rsource 3 1 1m
Vin1 3 2 PULSE 0 5.0 10u 1u
.ENDS]]>
      </parameter>
			<image>
				<label text="Vin_2" position="330,320" textroot=" " orientation="0" color=""/>  <hotzone points="30,-60,-30,60"/>
        <shape type="line" width="Hair" color="#0000ff" points="0,60,0,30"/>
        <shape type="line" width="Hair" color="#0000ff" points="0,-60,0,-30"/>
        <shape type="line" width="Hair" color="#0000ff" points="20,-30,20,-40"/>
        <shape type="line" width="Hair" color="#0000ff" points="14,-34,26,-34"/>
        <shape type="line" width="Hair" color="#0000ff" points="14,34,26,34"/>
        <shape type="line" width="1" color="#0000ff" points="-22,10,-16,10"/>
        <shape type="line" width="1" color="#0000ff" points="-16,10,-14,-10"/>
        <shape type="line" width="1" color="#0000ff" points="-14,-10,22,-10"/>
        <shape type="ellipse" points="-30,30,30,-30" color="#0000ff" width="2"/>
        <pin position="0,-60" dir="0" length="0" text="1"/>
        <pin position="0,60" dir="0" length="0" text="2"/>
      </image>
		</component>
    <component type="ILoad" typeid="34" position="1610,300" mirrored="0" nodematch="0" macrotype="2" orientation="0">
			<parameter idx="0" encrypted="0">
			</parameter>
			<image>
				<label text="ILoad" position="1610,300" textroot=" " orientation="0" color=""/>  <hotzone points="6,-30,-6,30"/>
        <shape type="line" width="Hair" color="#0000ff" points="0,-30,0,30"/>
        <shape type="line" width="1" color="#0000ff" points="4,-6,-4,-6"/>
        <shape type="line" width="1" color="#0000ff" points="-4,-6,0,4"/>
        <shape type="line" width="1" color="#0000ff" points="0,4,4,-6"/>
        <pin position="0,-30" dir="0" length="0" text="1"/>
        <pin position="0,30" dir="0" length="0" text="2"/>
      </image>  <parameter idx="0" encrypted="0">
        <![CDATA[***********************************
*     Created by WB Importer      *
***********************************
.SUBCKT ILoad 1 2 
V_Iprobe 1 2 0.0
.ENDS
]]>
      </parameter>
      <parameter idx="1" name="VALUE" value="0"/>
    </component>
    <component type="Rload" typeid="57" position="1610,490" mirrored="0" nodematch="0" macrotype="2" orientation="0">
			<parameter idx="0" encrypted="0">
        <![CDATA[
***********************************
*     Created by WB Importer      *
***********************************
.subckt OUTPUT_BLOCK_WB_OUTPUT_BLOCK_STARTUP_PROBE_Rload 1 2
Rload 1 2 2.357142857142857

.ends]]>
      </parameter>
			<image>
				<label text="Rload" position="1628,460" textroot=" " orientation="0" color=""/>  <hotzone points="-10,60,10,-60"/>
        <shape type="line" width="1" color="#0000ff" points="0,60,0,40"/>
        <shape type="line" width="1" color="#0000ff" points="0,40,-10,30"/>
        <shape type="line" width="1" color="#0000ff" points="-10,30,10,10"/>
        <shape type="line" width="1" color="#0000ff" points="10,10,-10,-10"/>
        <shape type="line" width="1" color="#0000ff" points="-10,-10,10,-30"/>
        <shape type="line" width="1" color="#0000ff" points="10,-30,0,-40"/>
        <shape type="line" width="1" color="#0000ff" points="0,-40,0,-60"/>
        <pin position="0,-60" dir="0" length="0" text="1"/>
        <pin position="0,60" dir="0" length="0" text="2"/>
      </image>
		</component>
    <wire points="300,190,320,190" label=""/>
    <wire points="1590,190,1610,190" label=""/>
    <wire points="300,630,320,630" label=""/>
    <wire points="1590,630,1610,630" label=""/>
    <wire points="320,630,430,630" label=""/>
    <wire points="430,650,1420,650" label=""/>
    <wire points="430,460,430,650" label=""/>
    <wire points="430,340,430,190" label=""/>
    <wire points="730,580,730,650" label=""/>
    <wire points="730,460,730,330" label=""/>
    <wire points="750,250,750,190" label=""/>
    <wire points="790,190,790,110" label=""/>
    <wire points="820,450,820,650" label=""/>
    <wire points="840,450,820,450" label=""/>
    <wire points="840,330,730,330" label=""/>
    <wire points="840,250,750,250" label=""/>
    <wire points="840,190,320,190" label=""/>
    <wire points="840,110,790,110" label=""/>
    <wire points="940,550,940,650" label=""/>
    <wire points="1020,550,1020,650" label=""/>
    <wire points="1120,490,1120,650" label=""/>
    <wire points="1120,290,1420,290" label=""/>
    <wire points="1140,190,1120,190" label=""/>
    <wire points="1140,110,1120,110" label=""/>
    <wire points="1260,190,1200,190" label=""/>
    <wire points="1260,110,1390,110" label=""/>
    <wire points="1320,450,1120,450" label=""/>
    <wire points="1380,190,1530,190" label=""/>
    <wire points="1390,190,1390,110" label=""/>
    <wire points="1420,510,1420,650" label=""/>
    <wire points="1420,330,1420,190" label=""/>
    <wire points="1590,630,1420,630" label=""/>
    <wire points="300,190,300,210" label=""/>
    <wire points="300,610,300,630" label=""/>
    <wire points="300,410,300,610" label=""/>
    <wire points="300,290,300,210" label=""/>
    <wire points="1610,190,1610,210" label=""/>
    <wire points="1610,610,1610,630" label=""/>
    <wire points="1610,610,1610,550" label=""/>
    <wire points="1610,370,1610,430" label=""/>
    <wire points="1610,370,1610,330" label=""/>
    <wire points="1610,210,1610,270" label=""/>
    <wire points="1320,450,1320,470" label=""/>
    <wire points="1320,630,1320,650" label=""/>
    <wire points="1320,560,1320,580" label=""/>
    <wire points="1320,580,1320,630" label=""/>
    <wire points="1320,470,1320,560" label=""/>
    <wire points="1120,350,1140,350" label=""/>
    <wire points="1260,290,1260,310" label=""/>
    <wire points="1190,350,1210,350" label=""/>
    <wire points="1140,350,1190,350" label=""/>
    <wire points="1210,350,1260,350" label=""/>
    <wire points="1260,330,1260,350" label=""/>
    <wire points="1260,310,1260,330" label=""/>
  </circuit>
  <analysis>
    <altium_simulation>
      <parameter idx="0" name="TSTOP" value="400u" group=".TRAN"/>
      <parameter idx="1" name="RELTOL" value="0.01" group=".TRAN"/>
      <parameter idx="2" name="VABSTOL" value="1m" group=".TRAN"/>
      <parameter idx="3" name="LTERELRATIO" value="0" group=".TRAN"/>
      <parameter idx="4" name="MAX_LIMITING_ITRES" value="400" group=".TRAN"/>
      <parameter idx="5" name="TMIN" value="1e-12" group=".TRAN"/>
      <parameter idx="6" name="KCLTOL" value="1n" group=".TRAN"/>
      <parameter idx="7" name="TRES" value="5n" group=".TRAN"/>
      <parameter idx="8" name="IABSTOL" value="1n" group=".TRAN"/>
      <parameter idx="9" name="LTERATIO" value="1000" group=".TRAN"/>
      <parameter idx="10" name="TSTART" value="0" group=".TRAN"/>
      <parameter idx="11" name="OPTSTEP" value="off" group=".TRAN"/>
      <parameter idx="12" name="MAXITRES" value="400" group=".TRAN"/>
      <parameter idx="13" name="TRAN_LIMITING" value="true" group=".OPTIONS"/>
      <parameter idx="14" name="MAXMOS_DIM" value="1000000000" group=".OPTIONS"/>
      <parameter idx="15" name="ROUND_ABSTOL" value="1" group=".OPTIONS"/>
      <parameter idx="16" name="ROUND_RELTOL" value="1" group=".OPTIONS"/>
      <parameter idx="17" name="FILTER" value="false" group=".OPTIONS"/>
      <parameter idx="18" name="CHECK_DCMAX" value="false" group=".OPTIONS"/>
      <parameter idx="19" name="Simulator" value="pspice" group="GENERAL"/>
    </altium_simulation>
  </analysis>
  <encrypt_macros>
    <macro filename="MAIN_BLOCK.U1.WB_TPS62131.enl">
      <![CDATA[-------- ENCRYPTED FILE --------
lMU26qc5Xco=
m/FIm5jiR/gAsngI/+YSfZLOiTYy1xMFRYZFSCqXZAvGeEEJEwmFbM4Cazcg4ceriSSgGelEr1InBlwAfVn5jQ==
FpHB/UM9MFHvEETRjL41EctPqAgwiRAEKUbjIuYpxtfjkP2xTopQg03fEkKb4LdDdosgnHZF
iC1ET2I5ypHu1GoHEUT5pdg1I8aHKzXuzZekw3XgiS//iveVJDoSnJcH8ewekyuziKoA+zW6
SVvo0xPKgKe35h3iVQkcm/kCO6eRNogm0kXoNXYdkdiOm+yF0y6uLFs02CrSJGTCBcDalLsz
8VxxXb6RiaxzhHfIRzqyVi25X6FFfZmsfPq93j9VOv10MWFgBfBNGn3GPzf/dX6a44ecrAge
uOAy8+UmIkXh+oZC+EQkPPkoYnfC+HKbhmyDrmPYYu7/mwh7spYpgcN6ZOgcsJsCLenFBBng
6qI1UY1anbbU8c8AxHZ9Q8FnSZm6WenRAq83W6X5fIoHCR3CJALlrZ+fPdxrmd1AJjM7YfaM
3ERT4Ma4d9bMF0mjdshjs6hsE44F7OUOXh+9/qATTPZEM3/Ue/dcv7poy6SwCJmYc0DsFr0w
CJuqJcbYX5jMLAlJYHYt1yVqARuXMCepYGlYMjUH4JzBPCPmIlRAnSxXwP84weLHJsBH6hWg
59mmaoE+d/23PaNGJ08LulwhHs4w83nkN4lJdioLIYbSiJ4xheK9KvrBptx/k6dH6OFgxr2Y
DJOZvZy2fHE0m2Qh+p3K1tNQF55ZkHstjL3xNLAffSleTIt1XdnCThij6N+IrvzGx3fGBTRb
+txZ9wPLpUuV2Qwwyzi+yerxUqKCWxblq+zZhaM6xJAr3cX3C6ISCKykyI6DGc5QwnfwkBQH
RkhULEfTk9xrNEV0cPvAi9W3BYkTjmUJDESCYcz20I9pbfOxU+dtG6beslZuMh9dJOi8ldLj
94xvvzeRC4NkOkTxOXyXY2aOSUF3Sv7QrzqlcTe8Z/5kVq2olUHZTwpx+Ksi6B/Sx1E9i+LV
A7kNMRyDfi50+iTNotrSS/kjOwmWkusTpJTIVNrCPGGwd4pWGjf64uNA8MU+GXMmAlD50FVc
1OJAAXKKrzKS4EQCcxDBd5QVPaxid135spbgYCgehqEAXuvQsevdfn3UdAUWbwSwvviiwNmd
fPJQ3SpJcUdxJnla4Nt+4Jx1PSo/+6Vaebiki9iD/ONFgYCxLZZdOzzWAgUeX3RxgRssDmSt
7pvfEuwcJKS7zfeNTasKEJRZDacQToGmCayqE5yvWpMtokKdTeYFY5ezhpwf+7m3LadarZHI
Ka7fnBc2DAsUvNujZsUdMYWPetem0GDV5pKR+0eTgs2P4j5SHyfQZiPJS+UEJvaZDqXDUcOC
xNnOxd4JhKpiOVWjElks9xMRYFb5yCVkNh0rpjXoK2qNJYIHWYqoU+Z2z6P+Cl26MpRp5fLr
1Cl/4BxRhHfaAz7VS1yPznpTrfs/yJQE6p7xmetPoJNZfT0Wxzj7iT5O4d05Bvl+3tABSnEQ
arkDosC3/O+fW6ZcMaxGiNvPsuHa6CmbIH4z7ifjwWges41rNz197KN1p3KNiNq2kb1mNTbm
C7W06kQRV1MhJgA3lSzfySbSr87j5JFSkwc1/Pg/lmi6ziJok0DG0/egPdluJ5+wIuDPagon
mg9or7DViRLv72ahQEw/JjP06f7Kwx9lXk1zhZK0p0+39l8HFxJ+Eqj37Oa5dogO0rq1Wl4W
3VSZfNN87tDcepHS4qONzyy/wWGMZ/3oY1C79jfuKf2zCQoe1zu/nwYW9QcErYEiS+wueFiQ
HNJ/XtkEcEdlMi9Kl03vOuRkUA5YLpwOCMpzamAPQzejYV40kc037uKSNmPbLEUGctU2SD3W
Z1gGuYnBskFxU1vwCoOEbs9leX3Wg33uFk51kus2m1k3Dsm5oQIRp76VsEv3JdnutgtBBFBc
IMp/aRDmam0kkAZbxb1iBPx1GGIb4GbY+TO734HrGaMW66XYTgFmkX59GtyFrGh5l+8C3zZ3
0k+BU9KpQWsWvWvQeTpGIbBCcqQvJh4mLbqSldItA7TtNLPPXhC3ZdlL4KmjN6/IGPXhtC++