<?xml version="1.0" encoding="iso-8859-1"?>
<!--
<ReadMe>

This XML can be imported in Altium Designer 14 using WEBENCH Altium Connector Extension and simulated using WEBENCH Simulation Engine.
The WEBENCH Altium Connector provides an interface to the Texas Instruments WEBENCH Designer Tools as well as to open WEBENCH exported Designs directly from inside Altium Designer.
It also includes the advanced WEBENCH Simulation Engine which can be used for offline circuit simulations.
You will need a activation key from TI to be able to use the WEBENCH Simulation Engine.

Installation guide:
http://www.ti.com/lit/SNVU481
You can download the WEBENCH extension from Altium Designer 14 Extensions.

Connector Details:
http://www.ti.com/lsds/ti/analog/webench/altiumconnector.page

More about WEBENCH simulation export to Altium:
http://www.ti.com/lsds/ti/analog/webench/simexportaltium.page

User Manual:
http://www.ti.com/lit/szzu007

</ReadMe>
-->
<schematic>
  <circuit>
    <text id="T_123456" position="400,-148" fontname="Times New Roman" fontsize="27" bold="0" color="#294901">
      <![CDATA[LM536013-Q1 Startup Simulation
(Exported from WEBENCH® Designer)]]>
    </text>
    <text id="T_123456" position="945,-148" fontname="Arial" fontsize="13" bold="1" italic="1" color="#278190" border="1">
      <![CDATA[Title :   LM536013-Q1 LM536013QDSXRQ1 9V-28V to 
3.30V @ 1A
-------------------------------------------------------------------------
WEBENCH® Design ID                  :       24
Date of WEBENCH® Export           :       21-Jul-2019
Time of WEBENCH® Export          :       5:52:11 AM
WEBENCH® Export Tool Version :       E1.67-X2.27]]>
    </text>
    <component type="Cboot" typeid="57" position="2690,150" mirrored="0" nodematch="0" macrotype="2" orientation="0">
			<parameter idx="0" encrypted="0">
        <![CDATA[
***********************************
*     Created by WB Importer      *
***********************************
.subckt MAIN_BLOCK_WB_LM53601_BUCK_BLOCK_Cboot 1 2
Cboot 1 2 1.0E-7

.ends]]>
      </parameter>
			<image>
				<label text="Cboot" position="2700,132" textroot=" " orientation="0" color=""/>  <hotzone points="60,-24,-60,24"/>
        <shape type="line" width="Hair" color="#0000ff" points="-60,0,-40,0"/>
        <shape type="line" width="Hair" color="#0000ff" points="60,0,40,0"/>
        <shape type="line" width="1" color="#0000ff" points="-6,24,-6,-24"/>
        <shape type="line" width="1" color="#0000ff" points="40,0,6,0"/>
        <shape type="line" width="1" color="#0000ff" points="-6,0,-40,0"/>
        <shape type="line" width="1" color="#0000ff" points="6,24,6,-24"/>
        <legend text="100 nF" position="18,10" orientation="0" fontname="Arial" fontsize="12" bold="0" italic="0" color="#229922"/>
        <legend text="64 mOhm" position="18,26" orientation="0" fontname="Arial" fontsize="12" bold="0" italic="0" color="#229922"/>
        <legend text="" position="18,40" orientation="0" fontname="Arial" fontsize="12" bold="0" italic="0" color="#229922"/>
        <pin position="-60,0" dir="0" length="0" text="1"/>
        <pin position="60,0" dir="0" length="0" text="2"/>
      </image>
		</component>
    <component type="Cin" typeid="57" position="830,420" mirrored="0" nodematch="0" macrotype="2" orientation="0">
			<parameter idx="0" encrypted="0">
        <![CDATA[
***********************************
*     Created by WB Importer      *
***********************************
.SUBCKT MAIN_BLOCK_Cin_WB_CAP_POLARIZED 1 2
Ccap 1 3 1.0E-5
Resr 3 2 0.001
.ENDS]]>
      </parameter>
			<image>
				<label text="Cin" position="836,398" textroot=" " orientation="0" color=""/>  <hotzone points="-24,60,24,-60"/>
        <shape type="line" width="Hair" color="#0000ff" points="0,-60,0,-40"/>
        <shape type="line" width="Hair" color="#0000ff" points="0,60,0,40"/>
        <shape type="line" width="1" color="#0000ff" points="24,-6,-24,-6"/>
        <shape type="line" width="1" color="#0000ff" points="0,40,0,6"/>
        <shape type="line" width="1" color="#0000ff" points="0,-6,0,-40"/>
        <shape type="line" width="1" color="#0000ff" points="24,6,-24,6"/>
        <legend text="10 uF" position="8,18" orientation="0" fontname="Arial" fontsize="12" bold="0" italic="0" color="#229922"/>
        <legend text="1 mOhm" position="8,32" orientation="0" fontname="Arial" fontsize="12" bold="0" italic="0" color="#229922"/>
        <legend text="" position="8,48" orientation="0" fontname="Arial" fontsize="12" bold="0" italic="0" color="#229922"/>
        <pin position="0,-60" dir="0" length="0" text="1"/>
        <pin position="0,60" dir="0" length="0" text="2"/>
      </image>
		</component>
    <component type="Cinx" typeid="57" position="1040,560" mirrored="0" nodematch="0" macrotype="2" orientation="0">
			<parameter idx="0" encrypted="0">
        <![CDATA[
***********************************
*     Created by WB Importer      *
***********************************
.SUBCKT MAIN_BLOCK_Cinx_WB_CAP_POLARIZED 1 2
Ccap 1 3 1.0E-7
Resr 3 2 0.0296
.ENDS]]>
      </parameter>
			<image>
				<label text="Cinx" position="1046,538" textroot=" " orientation="0" color=""/>  <hotzone points="-24,60,24,-60"/>
        <shape type="line" width="Hair" color="#0000ff" points="0,-60,0,-40"/>
        <shape type="line" width="Hair" color="#0000ff" points="0,60,0,40"/>
        <shape type="line" width="1" color="#0000ff" points="24,-6,-24,-6"/>
        <shape type="line" width="1" color="#0000ff" points="0,40,0,6"/>
        <shape type="line" width="1" color="#0000ff" points="0,-6,0,-40"/>
        <shape type="line" width="1" color="#0000ff" points="24,6,-24,6"/>
        <legend text="100 nF" position="8,18" orientation="0" fontname="Arial" fontsize="12" bold="0" italic="0" color="#229922"/>
        <legend text="29.6 mOhm" position="8,32" orientation="0" fontname="Arial" fontsize="12" bold="0" italic="0" color="#229922"/>
        <legend text="" position="8,48" orientation="0" fontname="Arial" fontsize="12" bold="0" italic="0" color="#229922"/>
        <pin position="0,-60" dir="0" length="0" text="1"/>
        <pin position="0,60" dir="0" length="0" text="2"/>
      </image>
		</component>
    <component type="Cout" typeid="57" position="3790,680" mirrored="0" nodematch="0" macrotype="2" orientation="0">
			<parameter idx="0" encrypted="0">
        <![CDATA[
***********************************
*     Created by WB Importer      *
***********************************
.SUBCKT MAIN_BLOCK_Cout_WB_CAP_CERAMIC 2 4
R1 2 3 6.666666666666666E-4
C1 3 4 2.1E-5 IC=0.0
R3 5 4 5
R2 2 4 4.761904761904762E7
R4 3 26 148148.14814814818
R6 3 7 148.14814814814815
C5 7 1 6.299999999999999E-7 IC=0.0
R7 3 10 14.814814814814817
C6 10 1 6.299999999999999E-7 IC=0.0
R8 3 13 1.4814814814814816
C7 13 1 6.299999999999999E-7 IC=0.0
C2 26 1 6.299999999999999E-7 IC=0.0
R9 3 28 14814.814814814816
C3 28 1 6.299999999999999E-7 IC=0.0
R10 3 29 1481.4814814814815
C4 29 1 6.299999999999999E-7 IC=0.0
L8 1 5 15p
R24 1 5 0.002
L12 5 4 1n
.ENDS]]>
      </parameter>
			<image>
				<label text="Cout" position="3796,658" textroot=" " orientation="0" color=""/>  <hotzone points="-24,60,24,-60"/>
        <shape type="line" width="Hair" color="#0000ff" points="0,-60,0,-40"/>
        <shape type="line" width="Hair" color="#0000ff" points="0,60,0,40"/>
        <shape type="line" width="1" color="#0000ff" points="24,-6,-24,-6"/>
        <shape type="line" width="1" color="#0000ff" points="0,40,0,6"/>
        <shape type="line" width="1" color="#0000ff" points="0,-6,0,-40"/>
        <shape type="line" width="1" color="#0000ff" points="24,6,-24,6"/>
        <legend text="22 uF" position="8,18" orientation="0" fontname="Arial" fontsize="12" bold="0" italic="0" color="#229922"/>
        <legend text="2 mOhm" position="8,32" orientation="0" fontname="Arial" fontsize="12" bold="0" italic="0" color="#229922"/>
        <legend text="qty=3" position="8,48" orientation="0" fontname="Arial" fontsize="12" bold="0" italic="0" color="#229922"/>
        <pin position="0,-60" dir="0" length="0" text="2"/>
        <pin position="0,60" dir="0" length="0" text="4"/>
      </image>
		</component>
    <component type="Cvcc" typeid="57" position="1340,580" mirrored="0" nodematch="0" macrotype="2" orientation="0">
			<parameter idx="0" encrypted="0">
        <![CDATA[
***********************************
*     Created by WB Importer      *
***********************************
.subckt MAIN_BLOCK_WB_LM53601_BUCK_BLOCK_Cvcc 1 2
Cvcc 1 2 1.0E-6

.ends]]>
      </parameter>
			<image>
				<label text="Cvcc" position="1346,558" textroot=" " orientation="0" color=""/>  <hotzone points="-24,60,24,-60"/>
        <shape type="line" width="Hair" color="#0000ff" points="0,-60,0,-40"/>
        <shape type="line" width="Hair" color="#0000ff" points="0,60,0,40"/>
        <shape type="line" width="1" color="#0000ff" points="24,-6,-24,-6"/>
        <shape type="line" width="1" color="#0000ff" points="0,40,0,6"/>
        <shape type="line" width="1" color="#0000ff" points="0,-6,0,-40"/>
        <shape type="line" width="1" color="#0000ff" points="24,6,-24,6"/>
        <legend text="1 uF" position="8,18" orientation="0" fontname="Arial" fontsize="12" bold="0" italic="0" color="#229922"/>
        <legend text="1 mOhm" position="8,32" orientation="0" fontname="Arial" fontsize="12" bold="0" italic="0" color="#229922"/>
        <legend text="" position="8,48" orientation="0" fontname="Arial" fontsize="12" bold="0" italic="0" color="#229922"/>
        <pin position="0,-60" dir="0" length="0" text="1"/>
        <pin position="0,60" dir="0" length="0" text="2"/>
      </image>
		</component>
    <component type="Ground" typeid="2" position="2300,880" mirrored="0" nodematch="0" macrotype="2" orientation="0">
			<parameter idx="0" encrypted="0">
			</parameter>
			<image>
				<label text="GND1" position="2300,880" textroot="GND1" orientation="0" color="#228822"/>
			</image>
		</component>
    <component type="ICout" typeid="34" position="3790,590" mirrored="0" nodematch="0" macrotype="2" orientation="0">
			<parameter idx="0" encrypted="0">
			</parameter>
			<image>
				<label text="ICout" position="3790,590" textroot=" " orientation="0" color=""/>  <hotzone points="6,-30,-6,30"/>
        <shape type="line" width="Hair" color="#0000ff" points="0,-30,0,30"/>
        <shape type="line" width="1" color="#0000ff" points="4,-6,-4,-6"/>
        <shape type="line" width="1" color="#0000ff" points="-4,-6,0,4"/>
        <shape type="line" width="1" color="#0000ff" points="0,4,4,-6"/>
        <pin position="0,-30" dir="0" length="0" text="1"/>
        <pin position="0,30" dir="0" length="0" text="2"/>
      </image>  <parameter idx="0" encrypted="0">
        <![CDATA[***********************************
*     Created by WB Importer      *
***********************************
.SUBCKT ICout 1 2 
V_Iprobe 1 2 0.0
.ENDS
]]>
      </parameter>
      <parameter idx="1" name="VALUE" value="0"/>
    </component>
    <component type="IIC" typeid="34" position="1790,220" mirrored="0" nodematch="0" macrotype="2" orientation="0">
			<parameter idx="0" encrypted="0">
			</parameter>
			<image>
				<label text="IIC" position="1790,220" textroot=" " orientation="0" color=""/>  <hotzone points="-30,-6,30,6"/>
        <shape type="line" width="Hair" color="#0000ff" points="-30,0,30,0"/>
        <shape type="line" width="1" color="#0000ff" points="-6,-4,-6,4"/>
        <shape type="line" width="1" color="#0000ff" points="-6,4,4,0"/>
        <shape type="line" width="1" color="#0000ff" points="4,0,-6,-4"/>
        <pin position="-30,0" dir="0" length="0" text="1"/>
        <pin position="30,0" dir="0" length="0" text="2"/>
      </image>  <parameter idx="0" encrypted="0">
        <![CDATA[***********************************
*     Created by WB Importer      *
***********************************
.SUBCKT IIC 1 2 
V_Iprobe 1 2 0.0
.ENDS
]]>
      </parameter>
      <parameter idx="1" name="VALUE" value="0"/>
    </component>
    <component type="IIn" typeid="34" position="770,220" mirrored="0" nodematch="0" macrotype="2" orientation="0">
			<parameter idx="0" encrypted="0">
			</parameter>
			<image>
				<label text="IIn" position="770,220" textroot=" " orientation="0" color=""/>  <hotzone points="-30,-6,30,6"/>
        <shape type="line" width="Hair" color="#0000ff" points="-30,0,30,0"/>
        <shape type="line" width="1" color="#0000ff" points="-6,-4,-6,4"/>
        <shape type="line" width="1" color="#0000ff" points="-6,4,4,0"/>
        <shape type="line" width="1" color="#0000ff" points="4,0,-6,-4"/>
        <pin position="-30,0" dir="0" length="0" text="1"/>
        <pin position="30,0" dir="0" length="0" text="2"/>
      </image>  <parameter idx="0" encrypted="0">
        <![CDATA[***********************************
*     Created by WB Importer      *
***********************************
.SUBCKT IIn 1 2 
V_Iprobe 1 2 0.0
.ENDS
]]>
      </parameter>
      <parameter idx="1" name="VALUE" value="0"/>
    </component>
    <component type="IInductor" typeid="34" position="2860,280" mirrored="0" nodematch="0" macrotype="2" orientation="0">
			<parameter idx="0" encrypted="0">
			</parameter>
			<image>
				<label text="IInductor" position="2860,280" textroot=" " orientation="0" color=""/>  <hotzone points="-30,-6,30,6"/>
        <shape type="line" width="Hair" color="#0000ff" points="-30,0,30,0"/>
        <shape type="line" width="1" color="#0000ff" points="-6,-4,-6,4"/>
        <shape type="line" width="1" color="#0000ff" points="-6,4,4,0"/>
        <shape type="line" width="1" color="#0000ff" points="4,0,-6,-4"/>
        <pin position="-30,0" dir="0" length="0" text="1"/>
        <pin position="30,0" dir="0" length="0" text="2"/>
      </image>  <parameter idx="0" encrypted="0">
        <![CDATA[***********************************
*     Created by WB Importer      *
***********************************
.SUBCKT IInductor 1 2 
V_Iprobe 1 2 0.0
.ENDS
]]>
      </parameter>
      <parameter idx="1" name="VALUE" value="0"/>
    </component>
    <component type="IOut" typeid="34" position="3870,440" mirrored="0" nodematch="0" macrotype="2" orientation="0">
			<parameter idx="0" encrypted="0">
			</parameter>
			<image>
				<label text="IOut" position="3870,440" textroot=" " orientation="0" color=""/>  <hotzone points="-30,-6,30,6"/>
        <shape type="line" width="Hair" color="#0000ff" points="-30,0,30,0"/>
        <shape type="line" width="1" color="#0000ff" points="-6,-4,-6,4"/>
        <shape type="line" width="1" color="#0000ff" points="-6,4,4,0"/>
        <shape type="line" width="1" color="#0000ff" points="4,0,-6,-4"/>
        <pin position="-30,0" dir="0" length="0" text="1"/>
        <pin position="30,0" dir="0" length="0" text="2"/>
      </image>  <parameter idx="0" encrypted="0">
        <![CDATA[***********************************
*     Created by WB Importer      *
***********************************
.SUBCKT IOut 1 2 
V_Iprobe 1 2 0.0
.ENDS
]]>
      </parameter>
      <parameter idx="1" name="VALUE" value="0"/>
    </component>
    <component type="ISwitch" typeid="34" position="2530,280" mirrored="0" nodematch="0" macrotype="2" orientation="0">
			<parameter idx="0" encrypted="0">
			</parameter>
			<image>
				<label text="ISwitch" position="2530,280" textroot=" " orientation="0" color=""/>  <hotzone points="-30,-6,30,6"/>
        <shape type="line" width="Hair" color="#0000ff" points="-30,0,30,0"/>
        <shape type="line" width="1" color="#0000ff" points="-6,-4,-6,4"/>
        <shape type="line" width="1" color="#0000ff" points="-6,4,4,0"/>
        <shape type="line" width="1" color="#0000ff" points="4,0,-6,-4"/>
        <pin position="-30,0" dir="0" length="0" text="1"/>
        <pin position="30,0" dir="0" length="0" text="2"/>
      </image>  <parameter idx="0" encrypted="0">
        <![CDATA[***********************************
*     Created by WB Importer      *
***********************************
.SUBCKT ISwitch 1 2 
V_Iprobe 1 2 0.0
.ENDS
]]>
      </parameter>
      <parameter idx="1" name="VALUE" value="0"/>
    </component>
    <component type="L1" typeid="57" position="3100,280" mirrored="0" nodematch="0" macrotype="2" orientation="0">
			<parameter idx="0" encrypted="0">
        <![CDATA[
***********************************
*     Created by WB Importer      *
***********************************
.SUBCKT MAIN_BLOCK_L1_WB_INDUCTOR 1 2
L1 2 3 4.7E-6
RDCR 3 1 0.094
.ENDS]]>
      </parameter>
			<image>
				<label text="L1" position="3066,250" textroot=" " orientation="0" color=""/>  <hotzone points="-60,-10,60,10"/>
        <shape type="line" width="Hair" color="#0000ff" points="40,0,60,0"/>
        <shape type="line" width="Hair" color="#0000ff" points="-40,0,-60,0"/>
        <legend text="4.7 uH" position="-30,8" orientation="0" fontname="Arial" fontsize="12" bold="0" italic="0" color="#229922"/>
        <legend text="94 mOhm" position="-30,22" orientation="0" fontname="Arial" fontsize="12" bold="0" italic="0" color="#229922"/>
        <shape type="arc" color="#0000ff" width="2" points="-40,-10,-20,10,90,90"/>
        <shape type="arc" color="#0000ff" width="2" points="-40,-10,-20,10,0,90"/>
        <shape type="arc" color="#0000ff" width="2" points="-20,-10,0,10,90,90"/>
        <shape type="arc" color="#0000ff" width="2" points="-20,-10,0,10,0,90"/>
        <shape type="arc" color="#0000ff" width="2" points="0,-10,20,10,90,90"/>
        <shape type="arc" color="#0000ff" width="2" points="0,-10,20,10,0,90"/>
        <shape type="arc" color="#0000ff" width="2" points="20,-10,40,10,90,90"/>
        <shape type="arc" color="#0000ff" width="2" points="20,-10,40,10,0,90"/>
        <pin position="-60,0" dir="0" length="0" text="1"/>
        <pin position="60,0" dir="0" length="0" text="2"/>
      </image>
		</component>
    <component type="LM536013QDSXRQ1" typeid="57" position="2230,320" mirrored="0" nodematch="0" macrotype="2" orientation="0">
			<parameter idx="0" encrypted="0">
        <![CDATA[*****************************************************************************
** MAIN_BLOCK.U1.WB_LM536003-Q1DSX Spice Model
*****************************************************************************
** (C) Copyright 2019 Texas Instruments Incorporated. All rights reserved.
** This model is designed as an aid for customers of Texas Instruments.
** TI and its licensors and suppliers make no warranties, either expressed
** or implied, with respect to this model, including the warranties of
** merchantability or fitness for a particular purpose. The model is
** provided solely on an "as is" basis. The entire risk as to its quality
** and performance is with the customer
*****************************************************************************
*****************************************************************************

.SUBCKT MAIN_BLOCK_U1_WB_LM536003-Q1DSX_ENCR SW BOOT VCC FB AGND RESET_N EN VIN SYNC_MODE GND PAD PARAMS: MODE=0
.include pspice://../MAIN_BLOCK.U1.WB_LM536003-Q1DSX.enl
XCALL SW BOOT VCC FB AGND RESET_N EN VIN SYNC_MODE GND PAD MAIN_BLOCK_U1_WB_LM536003-Q1DSX PARAMS: MODE=0 
.ENDS
]]>
      </parameter>
			<image>
				<label text="U1" position="2070,120" textroot="U1 " orientation="0" color=""/>  <hotzone points="-160,-180,160,180"/>
        <shape type="line" width="Hair" color="#0000ff" points="-120,140,120,140"/>
        <shape type="line" width="Hair" color="#0000ff" points="120,140,120,-140"/>
        <shape type="line" width="Hair" color="#0000ff" points="120,-140,-120,-140"/>
        <shape type="line" width="Hair" color="#0000ff" points="-120,-140,-120,140"/>
        <shape type="line" width="Hair" color="#0000ff" points="160,-40,120,-40"/>
        <shape type="line" width="Hair" color="#0000ff" points="160,-100,120,-100"/>
        <shape type="line" width="Hair" color="#0000ff" points="-160,-60,-120,-60"/>
        <shape type="line" width="Hair" color="#0000ff" points="160,0,120,0"/>
        <shape type="line" width="Hair" color="#0000ff" points="160,40,120,40"/>
        <shape type="line" width="Hair" color="#0000ff" points="-160,20,-120,20"/>
        <shape type="line" width="Hair" color="#0000ff" points="-160,-20,-120,-20"/>
        <shape type="line" width="Hair" color="#0000ff" points="-160,-100,-120,-100"/>
        <shape type="line" width="Hair" color="#0000ff" points="-160,60,-120,60"/>
        <shape type="line" width="Hair" color="#0000ff" points="160,80,120,80"/>
        <shape type="line" width="Hair" color="#0000ff" points="160,120,120,120"/>
        <shape type="line" width="1" color="#ff0000" points="-1,-115,-2,-110"/>
        <shape type="line" width="1" color="#ff0000" points="-1,-117,-1,-117"/>
        <shape type="polygon" width="1" color="#ff0000" fill="#ff0000" points="-7,-119,-7,-113,-11,-113,-11,-112,-10,-111,-9,-109,-8,-108,-7,-108,-6,-109,-5,-108,-4,-106,-1,-104,0,-104,0,-106,1,-108,3,-109,4,-110,4,-113,3,-114,3,-116,1,-116,0,-114,2,-114,1,-112,0,-112,-1,-110,0,-110,0,-109,-1,-108,-3,-108,-4,-109,-3,-112,-5,-112,-4,-114,-3,-114,-3,-114,-2,-116,-4,-116,-4,-118,-4,-119"/>
        <legend text="LM536013-Q1DSX" position="-56,-84" orientation="0" fontname="Arial" fontsize="10" bold="0" italic="0" color="4278190208"/>
        <pin position="140,-40" dir="0" length="0" text="SW">
          <legend text="SW" position="100,-50" orientation="0" fontname="Arial" fontsize="10" bold="0" italic="0" color="4286578688"/>
        </pin>
        <pin position="140,-100" dir="0" length="0" text="BOOT">
          <legend text="BOOT" position="80,-110" orientation="0" fontname="Arial" fontsize="10" bold="0" italic="0" color="4286578688"/>
        </pin>
        <pin position="-140,-60" dir="0" length="0" text="VCC">
          <legend text="VCC" position="-118,-70" orientation="0" fontname="Arial" fontsize="10" bold="0" italic="0" color="4286578688"/>
        </pin>
        <pin position="140,0" dir="0" length="0" text="FB">
          <legend text="FB" position="100,-10" orientation="0" fontname="Arial" fontsize="10" bold="0" italic="0" color="4286578688"/>
        </pin>
        <pin position="140,40" dir="0" length="0" text="AGND">
          <legend text="AGND" position="80,30" orientation="0" fontname="Arial" fontsize="10" bold="0" italic="0" color="4286578688"/>
        </pin>
        <pin position="-140,20" dir="0" length="0" text="RESET_N">
          <legend text="RESET_N" position="-118,10" orientation="0" fontname="Arial" fontsize="10" bold="0" italic="0" color="4286578688"/>
        </pin>
        <pin position="-140,-20" dir="0" length="0" text="EN">
          <legend text="EN" position="-118,-30" orientation="0" fontname="Arial" fontsize="10" bold="0" italic="0" color="4286578688"/>
        </pin>
        <pin position="-140,-100" dir="0" length="0" text="VIN">
          <legend text="VIN" position="-118,-110" orientation="0" fontname="Arial" fontsize="10" bold="0" italic="0" color="4286578688"/>
        </pin>
        <pin position="-140,60" dir="0" length="0" text="SYNC_MODE">
          <legend text="SYNC_MODE" position="-118,50" orientation="0" fontname="Arial" fontsize="10" bold="0" italic="0" color="4286578688"/>
        </pin>
        <pin position="140,80" dir="0" length="0" text="GND">
          <legend text="GND" position="90,70" orientation="0" fontname="Arial" fontsize="10" bold="0" italic="0" color="4286578688"/>
        </pin>
        <pin position="140,120" dir="0" length="0" text="PAD">
          <legend text="PAD" position="90,110" orientation="0" fontname="Arial" fontsize="10" bold="0" italic="0" color="4286578688"/>
        </pin>
      </image>
		</component>
    <component type="VIn" typeid="4" position="1110,220" mirrored="0" nodematch="0" macrotype="2" orientation="0">
			<parameter idx="0" encrypted="0">
			</parameter>
			<image>
				<label text="VIn" position="1110,190" textroot="VIn" orientation="0" color="#228822"/>
			</image>
		</component>
    <component type="VOut" typeid="4" position="3730,280" mirrored="0" nodematch="0" macrotype="2" orientation="0">
			<parameter idx="0" encrypted="0">
			</parameter>
			<image>
				<label text="VOut" position="3730,250" textroot="VOut" orientation="0" color="#228822"/>
			</image>
		</component>
    <component type="VSwitch" typeid="4" position="2980,280" mirrored="0" nodematch="0" macrotype="2" orientation="0">
			<parameter idx="0" encrypted="0">
			</parameter>
			<image>
				<label text="VSwitch" position="2980,250" textroot="VSwitch" orientation="0" color="#228822"/>
			</image>
		</component>
    <component type="ILoad" typeid="34" position="3950,550" mirrored="0" nodematch="0" macrotype="2" orientation="0">
			<parameter idx="0" encrypted="0">
			</parameter>
			<image>
				<label text="ILoad" position="3950,550" textroot=" " orientation="0" color=""/>  <hotzone points="6,-30,-6,30"/>
        <shape type="line" width="Hair" color="#0000ff" points="0,-30,0,30"/>
        <shape type="line" width="1" color="#0000ff" points="4,-6,-4,-6"/>
        <shape type="line" width="1" color="#0000ff" points="-4,-6,0,4"/>
        <shape type="line" width="1" color="#0000ff" points="0,4,4,-6"/>
        <pin position="0,-30" dir="0" length="0" text="1"/>
        <pin position="0,30" dir="0" length="0" text="2"/>
      </image>  <parameter idx="0" encrypted="0">
        <![CDATA[***********************************
*     Created by WB Importer      *
***********************************
.SUBCKT ILoad 1 2 
V_Iprobe 1 2 0.0
.ENDS
]]>
      </parameter>
      <parameter idx="1" name="VALUE" value="0"/>
    </component>
    <component type="Rload" typeid="57" position="3950,740" mirrored="0" nodematch="0" macrotype="2" orientation="0">
			<parameter idx="0" encrypted="0">
        <![CDATA[
***********************************
*     Created by WB Importer      *
***********************************
.subckt OUTPUT_BLOCK_WB_OUTPUT_BLOCK_STARTUP_PROBE_Rload 1 2
Rload 1 2 3.3

.ends]]>
      </parameter>
			<image>
				<label text="Rload" position="3968,710" textroot=" " orientation="0" color=""/>  <hotzone points="-10,60,10,-60"/>
        <shape type="line" width="1" color="#0000ff" points="0,60,0,40"/>
        <shape type="line" width="1" color="#0000ff" points="0,40,-10,30"/>
        <shape type="line" width="1" color="#0000ff" points="-10,30,10,10"/>
        <shape type="line" width="1" color="#0000ff" points="10,10,-10,-10"/>
        <shape type="line" width="1" color="#0000ff" points="-10,-10,10,-30"/>
        <shape type="line" width="1" color="#0000ff" points="10,-30,0,-40"/>
        <shape type="line" width="1" color="#0000ff" points="0,-40,0,-60"/>
        <pin position="0,-60" dir="0" length="0" text="1"/>
        <pin position="0,60" dir="0" length="0" text="2"/>
      </image>
		</component>
    <component type="Vin_2" typeid="57" position="690,380" mirrored="0" nodematch="0" macrotype="2" orientation="0">
			<parameter idx="0" encrypted="0">
        <![CDATA[
***********************************
*     Created by WB Importer      *
***********************************
.SUBCKT INPUT_BLOCK_Vin_WB_STARTUP_VOLTAGE_SOURCE 1 2
Rsource 3 1 1m
Vin1 3 2 PULSE 0 18.5 10u 10u
.ENDS]]>
      </parameter>
			<image>
				<label text="Vin_2" position="720,350" textroot=" " orientation="0" color=""/>  <hotzone points="30,-60,-30,60"/>
        <shape type="line" width="Hair" color="#0000ff" points="0,60,0,30"/>
        <shape type="line" width="Hair" color="#0000ff" points="0,-60,0,-30"/>
        <shape type="line" width="Hair" color="#0000ff" points="20,-30,20,-40"/>
        <shape type="line" width="Hair" color="#0000ff" points="14,-34,26,-34"/>
        <shape type="line" width="Hair" color="#0000ff" points="14,34,26,34"/>
        <shape type="line" width="1" color="#0000ff" points="-22,10,-16,10"/>
        <shape type="line" width="1" color="#0000ff" points="-16,10,-14,-10"/>
        <shape type="line" width="1" color="#0000ff" points="-14,-10,22,-10"/>
        <shape type="ellipse" points="-30,30,30,-30" color="#0000ff" width="2"/>
        <pin position="0,-60" dir="0" length="0" text="1"/>
        <pin position="0,60" dir="0" length="0" text="2"/>
      </image>
		</component>
    <wire points="690,220,710,220" label=""/>
    <wire points="3930,440,3950,440" label=""/>
    <wire points="690,660,690,680" label=""/>
    <wire points="3930,880,3950,880" label=""/>
    <wire points="690,880,3930,880" label=""/>
    <wire points="690,680,690,880" label=""/>
    <wire points="710,220,740,220" label=""/>
    <wire points="800,220,1760,220" label=""/>
    <wire points="830,480,830,880" label=""/>
    <wire points="830,360,830,220" label=""/>
    <wire points="1040,620,1040,880" label=""/>
    <wire points="1040,500,1040,220" label=""/>
    <wire points="1340,640,1340,880" label=""/>
    <wire points="1340,520,1340,260" label=""/>
    <wire points="1340,260,2090,260" label=""/>
    <wire points="1940,300,1940,220" label=""/>
    <wire points="2090,380,2070,380" label=""/>
    <wire points="2090,300,1940,300" label=""/>
    <wire points="2090,220,1820,220" label=""/>
    <wire points="2370,360,2460,360" label=""/>
    <wire points="2370,320,2790,320" label=""/>
    <wire points="2370,280,2500,280" label=""/>
    <wire points="2370,220,2460,220" label=""/>
    <wire points="2460,440,2370,440" label=""/>
    <wire points="2460,400,2370,400" label=""/>
    <wire points="2460,360,2460,880" label=""/>
    <wire points="2460,220,2460,150" label=""/>
    <wire points="2460,150,2630,150" label=""/>
    <wire points="2790,320,2790,550" label=""/>
    <wire points="2790,150,2750,150" label=""/>
    <wire points="2790,150,2790,280" label=""/>
    <wire points="2830,280,2560,280" label=""/>
    <wire points="3040,280,2890,280" label=""/>
    <wire points="3160,280,3790,280" label=""/>
    <wire points="3550,550,2790,550" label=""/>
    <wire points="3550,550,3550,280" label=""/>
    <wire points="3790,740,3790,880" label=""/>
    <wire points="3790,440,3840,440" label=""/>